Circuit: * D:\Matthias\OneDrive\Dokumente\LTspiceXVII\class_d_amp_final_design.asc

WARNING: Less than two connections to node NC_02.  This node is used by S:U3:1.
Direct Newton iteration failed to find .op point.  (Use ".option noopiter" to skip.)
Starting Gmin stepping
Gmin = 10
Gmin = 1.07374
Gmin = 0.115292
Gmin = 0.0123794
Gmin = 0.00132923
Gmin = 0.000142725
Gmin = 1.5325e-005
Gmin = 1.6455e-006
Gmin = 1.76685e-007
Gmin = 1.89714e-008
Gmin = 2.03704e-009
Gmin = 2.18725e-010
Gmin = 2.34854e-011
Gmin = 2.52173e-012
Gmin = 2.70769e-013
Gmin = 0
Gmin stepping succeeded in finding the operating point.

Heightened Def Con from 0.00261456 to 0.00261456
Heightened Def Con from 0.0181389 to 0.0181389

Date: Tue Mar 09 16:30:42 2021
Total elapsed time: 188.582 seconds.

tnom = 27
temp = 27
method = modified trap
totiter = 15444569
traniter = 15444067
tranpoints = 3763183
accept = 2744760
rejected = 1018425
matrix size = 125
fillins = 152
solver = Normal
Thread vector: 8.4/5.6[2] 3.1/2.7[2] 1.8/2.3[1] 0.4/1.3[1]  2592/500
Matrix Compiler1: 16.72 KB object code size  2.3/1.2/[0.7]
Matrix Compiler2: 13.26 KB object code size  1.1/1.7/[0.6]

